22
 generated by VMD
 H         9.274000        7.797000       11.676000
 C         9.273000        8.887000       11.676000
 H         8.759000        9.251000       12.566000
 H         8.759000        9.251000       10.786000
 C        10.700000        9.438000       11.676000
 O        11.664000        8.674000       11.676000
 N        10.828000       10.767000       11.676000
 H        10.004000       11.351000       11.676000
 C        12.126000       11.411000       11.676000
 H        12.680000       11.113000       12.566000
 C        12.934000       11.018000       10.444000
 H        12.396000       11.319000        9.545000
 H        13.904000       11.516000       10.471000
 H        13.081000        9.938000       10.435000
 C        11.986000       12.926000       11.676000
 O        10.874000       13.450000       11.676000
 N        13.119000       13.632000       11.676000
 H        14.009000       13.153000       11.676000
 C        13.119000       15.081000       11.676000
 H        12.092000       15.445000       11.676000
 H        13.633000       15.445000       12.566000
 H        13.633000       15.445000       10.786000
